# MODFLOW-USG RCH file written by Modflow-User-Tools version       1.17
           4           0
           1
INTERNAL  1  (FREE)  -1  Recharge()
    5.56000E-06    5.56000E-06    5.56000E-06    5.56000E-06    5.56000E-06
    5.56000E-06    5.56000E-06    5.56000E-06    5.56000E-06    5.56000E-06
    5.56000E-06    5.56000E-06    5.56000E-06    5.56000E-06    5.56000E-06
    5.56000E-06    5.56000E-06    5.56000E-06    5.56000E-06    5.56000E-06
    5.56000E-06    5.56000E-06    5.56000E-06    5.56000E-06    5.56000E-06
    5.56000E-06    5.56000E-06    5.56000E-06    5.56000E-06    5.56000E-06
    5.56000E-06    5.56000E-06    5.56000E-06    5.56000E-06    5.56000E-06
    5.56000E-06    5.56000E-06    5.56000E-06    5.56000E-06    5.56000E-06
    5.56000E-06    5.56000E-06    5.56000E-06    5.56000E-06    5.56000E-06
    5.56000E-06    5.56000E-06    5.56000E-06    5.56000E-06    5.56000E-06
    5.56000E-06    5.56000E-06    5.56000E-06    5.56000E-06    5.56000E-06
    5.56000E-06    5.56000E-06    5.56000E-06    5.56000E-06    5.56000E-06
    5.56000E-06    5.56000E-06    5.56000E-06    5.56000E-06    5.56000E-06
    5.56000E-06    5.56000E-06    5.56000E-06    5.56000E-06    5.56000E-06
    5.56000E-06    5.56000E-06    5.56000E-06    5.56000E-06    5.56000E-06
    5.56000E-06    5.56000E-06    5.56000E-06    5.56000E-06    5.56000E-06
    5.56000E-06    5.56000E-06    5.56000E-06    5.56000E-06    5.56000E-06
    5.56000E-06    5.56000E-06    5.56000E-06    5.56000E-06    5.56000E-06
    5.56000E-06    5.56000E-06    5.56000E-06    5.56000E-06    5.56000E-06
    5.56000E-06    5.56000E-06    5.56000E-06    5.56000E-06    5.56000E-06
    5.56000E-06    5.56000E-06    5.56000E-06    5.56000E-06    5.56000E-06
    5.56000E-06    5.56000E-06    5.56000E-06    5.56000E-06    5.56000E-06
    5.56000E-06    5.56000E-06    5.56000E-06    5.56000E-06    5.56000E-06
    5.56000E-06    5.56000E-06    5.56000E-06    5.56000E-06    5.56000E-06
    5.56000E-06    5.56000E-06    5.56000E-06    5.56000E-06    5.56000E-06
    5.56000E-06    5.56000E-06    5.56000E-06    5.56000E-06    5.56000E-06
    5.56000E-06    5.56000E-06    5.56000E-06    5.56000E-06    5.56000E-06
    5.56000E-06    5.56000E-06    5.56000E-06    5.56000E-06    5.56000E-06
    5.56000E-06    5.56000E-06    5.56000E-06    5.56000E-06    5.56000E-06
    5.56000E-06    5.56000E-06    5.56000E-06    5.56000E-06    5.56000E-06
    5.56000E-06    5.56000E-06    5.56000E-06    5.56000E-06    5.56000E-06
    5.56000E-06    5.56000E-06    5.56000E-06    5.56000E-06    5.56000E-06
    5.56000E-06    5.56000E-06    5.56000E-06    5.56000E-06    5.56000E-06
    5.56000E-06    5.56000E-06    5.56000E-06    5.56000E-06    5.56000E-06
    5.56000E-06    5.56000E-06    5.56000E-06    5.56000E-06    5.56000E-06
    5.56000E-06    5.56000E-06    5.56000E-06    5.56000E-06    5.56000E-06
    5.56000E-06    5.56000E-06    5.56000E-06    5.56000E-06    5.56000E-06
    5.56000E-06    5.56000E-06    5.56000E-06    5.56000E-06    5.56000E-06
    5.56000E-06    5.56000E-06    5.56000E-06    5.56000E-06    5.56000E-06
    5.56000E-06    5.56000E-06    5.56000E-06    5.56000E-06    5.56000E-06
    5.56000E-06    5.56000E-06    5.56000E-06    5.56000E-06    5.56000E-06
    5.56000E-06    5.56000E-06    5.56000E-06    5.56000E-06    5.56000E-06
    5.56000E-06    5.56000E-06    5.56000E-06    5.56000E-06    5.56000E-06
    5.56000E-06    5.56000E-06    5.56000E-06    5.56000E-06    5.56000E-06
    5.56000E-06    5.56000E-06    5.56000E-06    5.56000E-06    5.56000E-06
    5.56000E-06    5.56000E-06    5.56000E-06    5.56000E-06    5.56000E-06
    5.56000E-06    5.56000E-06    5.56000E-06    5.56000E-06    5.56000E-06
    5.56000E-06    5.56000E-06    5.56000E-06    5.56000E-06    5.56000E-06
    5.56000E-06    5.56000E-06    5.56000E-06    5.56000E-06    5.56000E-06
    5.56000E-06    5.56000E-06    5.56000E-06    5.56000E-06    5.56000E-06
    5.56000E-06    5.56000E-06    5.56000E-06    5.56000E-06    5.56000E-06
    5.56000E-06    5.56000E-06    5.56000E-06    5.56000E-06    5.56000E-06
    5.56000E-06    5.56000E-06    5.56000E-06    5.56000E-06    5.56000E-06
    5.56000E-06    5.56000E-06    5.56000E-06    5.56000E-06    5.56000E-06
    5.56000E-06    5.56000E-06    5.56000E-06    5.56000E-06    5.56000E-06
    5.56000E-06    5.56000E-06    5.56000E-06    5.56000E-06    5.56000E-06
    5.56000E-06    5.56000E-06    5.56000E-06    5.56000E-06    5.56000E-06
    5.56000E-06    5.56000E-06    5.56000E-06    5.56000E-06    5.56000E-06
    5.56000E-06    5.56000E-06    5.56000E-06    5.56000E-06    5.56000E-06
    5.56000E-06    5.56000E-06    5.56000E-06    5.56000E-06    5.56000E-06
    5.56000E-06    5.56000E-06    5.56000E-06    5.56000E-06    5.56000E-06
    5.56000E-06    5.56000E-06    5.56000E-06    5.56000E-06    5.56000E-06
    5.56000E-06    5.56000E-06    5.56000E-06    5.56000E-06    5.56000E-06
    5.56000E-06    5.56000E-06    5.56000E-06    5.56000E-06    5.56000E-06
    5.56000E-06    5.56000E-06    5.56000E-06    5.56000E-06    5.56000E-06
    5.56000E-06    5.56000E-06    5.56000E-06    5.56000E-06    5.56000E-06
    5.56000E-06    5.56000E-06    5.56000E-06    5.56000E-06    5.56000E-06
    5.56000E-06    5.56000E-06    5.56000E-06    5.56000E-06    5.56000E-06
    5.56000E-06    5.56000E-06    5.56000E-06    5.56000E-06    5.56000E-06
    5.56000E-06    5.56000E-06    5.56000E-06    5.56000E-06    5.56000E-06
    5.56000E-06    5.56000E-06    5.56000E-06    5.56000E-06    5.56000E-06
    5.56000E-06    5.56000E-06    5.56000E-06    5.56000E-06    5.56000E-06
    5.56000E-06    5.56000E-06    5.56000E-06    5.56000E-06    5.56000E-06
    5.56000E-06    5.56000E-06    5.56000E-06    5.56000E-06    5.56000E-06
    5.56000E-06    5.56000E-06    5.56000E-06    5.56000E-06    5.56000E-06
    5.56000E-06    5.56000E-06    5.56000E-06    5.56000E-06    5.56000E-06
    5.56000E-06    5.56000E-06    5.56000E-06    5.56000E-06    5.56000E-06
    5.56000E-06    5.56000E-06    5.56000E-06    5.56000E-06    5.56000E-06
    5.56000E-06    5.56000E-06    5.56000E-06    5.56000E-06    5.56000E-06
    5.56000E-06    5.56000E-06    5.56000E-06    5.56000E-06    5.56000E-06
    5.56000E-06    5.56000E-06    5.56000E-06    5.56000E-06    5.56000E-06
    5.56000E-06    5.56000E-06    5.56000E-06    5.56000E-06    5.56000E-06
    5.56000E-06    5.56000E-06    5.56000E-06    5.56000E-06    5.56000E-06
    5.56000E-06    5.56000E-06    5.56000E-06    5.56000E-06    5.56000E-06
    5.56000E-06    5.56000E-06    5.56000E-06    5.56000E-06    5.56000E-06
    5.56000E-06    5.56000E-06    5.56000E-06    5.56000E-06    5.56000E-06
    5.56000E-06    5.56000E-06    5.56000E-06    5.56000E-06    5.56000E-06
    5.56000E-06    5.56000E-06    5.56000E-06    5.56000E-06    5.56000E-06
    5.56000E-06    5.56000E-06    5.56000E-06    5.56000E-06    5.56000E-06
    5.56000E-06    5.56000E-06    5.56000E-06    5.56000E-06    5.56000E-06
    5.56000E-06    5.56000E-06    5.56000E-06    5.56000E-06    5.56000E-06
    5.56000E-06    5.56000E-06    5.56000E-06    5.56000E-06    5.56000E-06
    5.56000E-06    5.56000E-06    5.56000E-06    5.56000E-06    5.56000E-06
    5.56000E-06    5.56000E-06    5.56000E-06    5.56000E-06    5.56000E-06
    5.56000E-06    5.56000E-06    5.56000E-06    5.56000E-06    5.56000E-06
    5.56000E-06    5.56000E-06    5.56000E-06    5.56000E-06    5.56000E-06
    5.56000E-06    5.56000E-06    5.56000E-06    5.56000E-06    5.56000E-06
    5.56000E-06    5.56000E-06    5.56000E-06    5.56000E-06    5.56000E-06
    5.56000E-06    5.56000E-06    5.56000E-06    5.56000E-06    5.56000E-06
    5.56000E-06    5.56000E-06    5.56000E-06    5.56000E-06    5.56000E-06
    5.56000E-06    5.56000E-06    5.56000E-06    5.56000E-06    5.56000E-06
    5.56000E-06    5.56000E-06    5.56000E-06    5.56000E-06    5.56000E-06
    5.56000E-06    5.56000E-06    5.56000E-06    5.56000E-06    5.56000E-06
    5.56000E-06    5.56000E-06    5.56000E-06    5.56000E-06    5.56000E-06
    5.56000E-06    5.56000E-06    5.56000E-06    5.56000E-06    5.56000E-06
    5.56000E-06    5.56000E-06    5.56000E-06    5.56000E-06    5.56000E-06
    5.56000E-06    5.56000E-06    5.56000E-06    5.56000E-06    5.56000E-06
    5.56000E-06    5.56000E-06    5.56000E-06    5.56000E-06    5.56000E-06
    5.56000E-06    5.56000E-06    5.56000E-06    5.56000E-06    5.56000E-06
    5.56000E-06    5.56000E-06    5.56000E-06    5.56000E-06    5.56000E-06
    5.56000E-06    5.56000E-06    5.56000E-06    5.56000E-06    5.56000E-06
    5.56000E-06    5.56000E-06    5.56000E-06    5.56000E-06    5.56000E-06
    5.56000E-06    5.56000E-06    5.56000E-06    5.56000E-06    5.56000E-06
    5.56000E-06    5.56000E-06    5.56000E-06    5.56000E-06    5.56000E-06
    5.56000E-06    5.56000E-06    5.56000E-06    5.56000E-06    5.56000E-06
    5.56000E-06    5.56000E-06    5.56000E-06    5.56000E-06    5.56000E-06
    5.56000E-06    5.56000E-06    5.56000E-06    5.56000E-06    5.56000E-06
    5.56000E-06    5.56000E-06    5.56000E-06    5.56000E-06    5.56000E-06
    5.56000E-06    5.56000E-06    5.56000E-06    5.56000E-06    5.56000E-06
    5.56000E-06    5.56000E-06    5.56000E-06    5.56000E-06    5.56000E-06
    5.56000E-06    5.56000E-06    5.56000E-06    5.56000E-06    5.56000E-06
    5.56000E-06    5.56000E-06    5.56000E-06    5.56000E-06    5.56000E-06
    5.56000E-06    5.56000E-06    5.56000E-06    5.56000E-06    5.56000E-06
    5.56000E-06    5.56000E-06    5.56000E-06    5.56000E-06    5.56000E-06
    5.56000E-06    5.56000E-06    5.56000E-06    5.56000E-06    5.56000E-06
    5.56000E-06    5.56000E-06    5.56000E-06    5.56000E-06    5.56000E-06
    5.56000E-06    5.56000E-06    5.56000E-06    5.56000E-06    5.56000E-06
    5.56000E-06    5.56000E-06    5.56000E-06    5.56000E-06    5.56000E-06
    5.56000E-06    5.56000E-06    5.56000E-06    5.56000E-06    5.56000E-06
    5.56000E-06    5.56000E-06    5.56000E-06    5.56000E-06    5.56000E-06
    5.56000E-06    5.56000E-06    5.56000E-06    5.56000E-06    5.56000E-06
    5.56000E-06    5.56000E-06    5.56000E-06    5.56000E-06    5.56000E-06
    5.56000E-06    5.56000E-06    5.56000E-06    5.56000E-06    5.56000E-06
    5.56000E-06    5.56000E-06    5.56000E-06    5.56000E-06    5.56000E-06
    5.56000E-06    5.56000E-06    5.56000E-06    5.56000E-06    5.56000E-06
    5.56000E-06    5.56000E-06    5.56000E-06    5.56000E-06    5.56000E-06
    5.56000E-06    5.56000E-06    5.56000E-06    5.56000E-06    5.56000E-06
    5.56000E-06    5.56000E-06    5.56000E-06    5.56000E-06    5.56000E-06
    5.56000E-06    5.56000E-06    5.56000E-06    5.56000E-06    5.56000E-06
    5.56000E-06    5.56000E-06    5.56000E-06    5.56000E-06    5.56000E-06
    5.56000E-06    5.56000E-06    5.56000E-06    5.56000E-06    5.56000E-06
    5.56000E-06    5.56000E-06    5.56000E-06    5.56000E-06    5.56000E-06
    5.56000E-06    5.56000E-06    5.56000E-06    5.56000E-06    5.56000E-06
    5.56000E-06    5.56000E-06    5.56000E-06    5.56000E-06    5.56000E-06
    5.56000E-06    5.56000E-06    5.56000E-06    5.56000E-06    5.56000E-06
    5.56000E-06    5.56000E-06    5.56000E-06    5.56000E-06    5.56000E-06
    5.56000E-06    5.56000E-06    5.56000E-06    5.56000E-06    5.56000E-06
    5.56000E-06    5.56000E-06    5.56000E-06    5.56000E-06    5.56000E-06
    5.56000E-06    5.56000E-06    5.56000E-06    5.56000E-06    5.56000E-06
    5.56000E-06    5.56000E-06    5.56000E-06    5.56000E-06    5.56000E-06
    5.56000E-06    5.56000E-06    5.56000E-06    5.56000E-06    5.56000E-06
    5.56000E-06    5.56000E-06    5.56000E-06    5.56000E-06    5.56000E-06
    5.56000E-06    5.56000E-06    5.56000E-06    5.56000E-06    5.56000E-06
    5.56000E-06    5.56000E-06    5.56000E-06    5.56000E-06    5.56000E-06
    5.56000E-06    5.56000E-06    5.56000E-06    5.56000E-06    5.56000E-06
    5.56000E-06    5.56000E-06    5.56000E-06    5.56000E-06    5.56000E-06
    5.56000E-06    5.56000E-06    5.56000E-06    5.56000E-06    5.56000E-06
    5.56000E-06    5.56000E-06    5.56000E-06    5.56000E-06    5.56000E-06
    5.56000E-06    5.56000E-06    5.56000E-06    5.56000E-06    5.56000E-06
    5.56000E-06    5.56000E-06    5.56000E-06    5.56000E-06    5.56000E-06
    5.56000E-06    5.56000E-06    5.56000E-06    5.56000E-06    5.56000E-06
    5.56000E-06    5.56000E-06    5.56000E-06    5.56000E-06    5.56000E-06
    5.56000E-06    5.56000E-06    5.56000E-06    5.56000E-06    5.56000E-06
    5.56000E-06    5.56000E-06    5.56000E-06    5.56000E-06    5.56000E-06
    5.56000E-06    5.56000E-06    5.56000E-06    5.56000E-06    5.56000E-06
    5.56000E-06    5.56000E-06    5.56000E-06    5.56000E-06    5.56000E-06
    5.56000E-06    5.56000E-06    5.56000E-06    5.56000E-06    5.56000E-06
    5.56000E-06    5.56000E-06    5.56000E-06    5.56000E-06    5.56000E-06
    5.56000E-06    5.56000E-06    5.56000E-06    5.56000E-06    5.56000E-06
    5.56000E-06    5.56000E-06    5.56000E-06    5.56000E-06    5.56000E-06
    5.56000E-06    5.56000E-06    5.56000E-06    5.56000E-06    5.56000E-06
    5.56000E-06    5.56000E-06    5.56000E-06    5.56000E-06    5.56000E-06
    5.56000E-06    5.56000E-06    5.56000E-06    5.56000E-06    5.56000E-06
    5.56000E-06    5.56000E-06    5.56000E-06    5.56000E-06    5.56000E-06
    5.56000E-06    5.56000E-06    5.56000E-06    5.56000E-06    5.56000E-06
    5.56000E-06    5.56000E-06    5.56000E-06    5.56000E-06    5.56000E-06
    5.56000E-06    5.56000E-06    5.56000E-06    5.56000E-06    5.56000E-06
    5.56000E-06    5.56000E-06    5.56000E-06    5.56000E-06    5.56000E-06
    5.56000E-06    5.56000E-06    5.56000E-06    5.56000E-06    5.56000E-06
    5.56000E-06    5.56000E-06    5.56000E-06    5.56000E-06    5.56000E-06
    5.56000E-06    5.56000E-06    5.56000E-06    5.56000E-06    5.56000E-06
    5.56000E-06    5.56000E-06    5.56000E-06    5.56000E-06    5.56000E-06
    5.56000E-06    5.56000E-06    5.56000E-06    5.56000E-06    5.56000E-06
    5.56000E-06    5.56000E-06    5.56000E-06    5.56000E-06    5.56000E-06
    5.56000E-06    5.56000E-06    5.56000E-06    5.56000E-06    5.56000E-06
    5.56000E-06    5.56000E-06    5.56000E-06    5.56000E-06    5.56000E-06
    5.56000E-06    5.56000E-06    5.56000E-06    5.56000E-06    5.56000E-06
    5.56000E-06    5.56000E-06    5.56000E-06    5.56000E-06    5.56000E-06
    5.56000E-06    5.56000E-06    5.56000E-06    5.56000E-06    5.56000E-06
    5.56000E-06    5.56000E-06    5.56000E-06    5.56000E-06    5.56000E-06
    5.56000E-06    5.56000E-06    5.56000E-06    5.56000E-06    5.56000E-06
    5.56000E-06    5.56000E-06    5.56000E-06    5.56000E-06    5.56000E-06
    5.56000E-06    5.56000E-06    5.56000E-06    5.56000E-06    5.56000E-06
    5.56000E-06    5.56000E-06    5.56000E-06    5.56000E-06    5.56000E-06
    5.56000E-06    5.56000E-06    5.56000E-06    5.56000E-06    5.56000E-06
    5.56000E-06    5.56000E-06    5.56000E-06    5.56000E-06    5.56000E-06
    5.56000E-06    5.56000E-06    5.56000E-06    5.56000E-06    5.56000E-06
    5.56000E-06    5.56000E-06    5.56000E-06    5.56000E-06    5.56000E-06
    5.56000E-06    5.56000E-06    5.56000E-06    5.56000E-06    5.56000E-06
    5.56000E-06    5.56000E-06    5.56000E-06    5.56000E-06    5.56000E-06
    5.56000E-06    5.56000E-06    5.56000E-06    5.56000E-06    5.56000E-06
    5.56000E-06    5.56000E-06    5.56000E-06    5.56000E-06    5.56000E-06
    5.56000E-06    5.56000E-06    5.56000E-06    5.56000E-06    5.56000E-06
    5.56000E-06    5.56000E-06    5.56000E-06    5.56000E-06    5.56000E-06
    5.56000E-06    5.56000E-06    5.56000E-06    5.56000E-06    5.56000E-06
    5.56000E-06    5.56000E-06    5.56000E-06    5.56000E-06    5.56000E-06
    5.56000E-06    5.56000E-06    5.56000E-06    5.56000E-06    5.56000E-06
    5.56000E-06    5.56000E-06    5.56000E-06    5.56000E-06    5.56000E-06
    5.56000E-06    5.56000E-06    5.56000E-06    5.56000E-06    5.56000E-06
    5.56000E-06    5.56000E-06    5.56000E-06    5.56000E-06    5.56000E-06
    5.56000E-06    5.56000E-06    5.56000E-06    5.56000E-06    5.56000E-06
    5.56000E-06    5.56000E-06    5.56000E-06    5.56000E-06    5.56000E-06
    5.56000E-06    5.56000E-06    5.56000E-06    5.56000E-06    5.56000E-06
    5.56000E-06    5.56000E-06    5.56000E-06    5.56000E-06    5.56000E-06
    5.56000E-06    5.56000E-06    5.56000E-06    5.56000E-06    5.56000E-06
    5.56000E-06    5.56000E-06    5.56000E-06    5.56000E-06    5.56000E-06
    5.56000E-06    5.56000E-06    5.56000E-06    5.56000E-06    5.56000E-06
    5.56000E-06    5.56000E-06    5.56000E-06    5.56000E-06    5.56000E-06
    5.56000E-06    5.56000E-06    5.56000E-06    5.56000E-06    5.56000E-06
    5.56000E-06    5.56000E-06    5.56000E-06    5.56000E-06    5.56000E-06
    5.56000E-06    5.56000E-06    5.56000E-06    5.56000E-06    5.56000E-06
    5.56000E-06    5.56000E-06    5.56000E-06    5.56000E-06    5.56000E-06
    5.56000E-06    5.56000E-06    5.56000E-06    5.56000E-06    5.56000E-06
    5.56000E-06    5.56000E-06    5.56000E-06    5.56000E-06    5.56000E-06
    5.56000E-06    5.56000E-06    5.56000E-06    5.56000E-06    5.56000E-06
    5.56000E-06    5.56000E-06    5.56000E-06    5.56000E-06    5.56000E-06
    5.56000E-06    5.56000E-06    5.56000E-06    5.56000E-06    5.56000E-06
    5.56000E-06    5.56000E-06    5.56000E-06    5.56000E-06    5.56000E-06
    5.56000E-06    5.56000E-06    5.56000E-06    5.56000E-06    5.56000E-06
    5.56000E-06    5.56000E-06    5.56000E-06    5.56000E-06    5.56000E-06
    5.56000E-06    5.56000E-06    5.56000E-06    5.56000E-06    5.56000E-06
    5.56000E-06    5.56000E-06    5.56000E-06    5.56000E-06    5.56000E-06
    5.56000E-06    5.56000E-06    5.56000E-06    5.56000E-06    5.56000E-06
    5.56000E-06    5.56000E-06    5.56000E-06    5.56000E-06    5.56000E-06
    5.56000E-06    5.56000E-06    5.56000E-06    5.56000E-06    5.56000E-06
    5.56000E-06    5.56000E-06    5.56000E-06    5.56000E-06    5.56000E-06
    5.56000E-06    5.56000E-06    5.56000E-06    5.56000E-06    5.56000E-06
    5.56000E-06    5.56000E-06    5.56000E-06    5.56000E-06    5.56000E-06
    5.56000E-06    5.56000E-06    5.56000E-06    5.56000E-06    5.56000E-06
    5.56000E-06    5.56000E-06    5.56000E-06    5.56000E-06    5.56000E-06
    5.56000E-06    5.56000E-06    5.56000E-06    5.56000E-06    5.56000E-06
    5.56000E-06    5.56000E-06    5.56000E-06    5.56000E-06    5.56000E-06
    5.56000E-06    5.56000E-06    5.56000E-06    5.56000E-06    5.56000E-06
    5.56000E-06    5.56000E-06    5.56000E-06    5.56000E-06    5.56000E-06
    5.56000E-06    5.56000E-06    5.56000E-06    5.56000E-06    5.56000E-06
    5.56000E-06    5.56000E-06    5.56000E-06    5.56000E-06    5.56000E-06
    5.56000E-06    5.56000E-06    5.56000E-06    5.56000E-06    5.56000E-06
    5.56000E-06    5.56000E-06    5.56000E-06    5.56000E-06    5.56000E-06
    5.56000E-06    5.56000E-06    5.56000E-06    5.56000E-06    5.56000E-06
    5.56000E-06    5.56000E-06    5.56000E-06    5.56000E-06    5.56000E-06
    5.56000E-06    5.56000E-06    5.56000E-06    5.56000E-06    5.56000E-06
    5.56000E-06    5.56000E-06    5.56000E-06    5.56000E-06    5.56000E-06
    5.56000E-06    5.56000E-06    5.56000E-06    5.56000E-06    5.56000E-06
    5.56000E-06    5.56000E-06    5.56000E-06    5.56000E-06    5.56000E-06
    5.56000E-06    5.56000E-06    5.56000E-06    5.56000E-06    5.56000E-06
    5.56000E-06    5.56000E-06    5.56000E-06    5.56000E-06    5.56000E-06
    5.56000E-06    5.56000E-06    5.56000E-06    5.56000E-06    5.56000E-06
    5.56000E-06    5.56000E-06    5.56000E-06    5.56000E-06    5.56000E-06
    5.56000E-06    5.56000E-06    5.56000E-06    5.56000E-06    5.56000E-06
    5.56000E-06    5.56000E-06    5.56000E-06    5.56000E-06    5.56000E-06
    5.56000E-06    5.56000E-06    5.56000E-06    5.56000E-06    5.56000E-06
    5.56000E-06    5.56000E-06    5.56000E-06    5.56000E-06    5.56000E-06
    5.56000E-06    5.56000E-06    5.56000E-06    5.56000E-06    5.56000E-06
    5.56000E-06    5.56000E-06    5.56000E-06    5.56000E-06    5.56000E-06
    5.56000E-06    5.56000E-06    5.56000E-06    5.56000E-06    5.56000E-06
    5.56000E-06    5.56000E-06    5.56000E-06    5.56000E-06    5.56000E-06
    5.56000E-06    5.56000E-06    5.56000E-06    5.56000E-06    5.56000E-06
    5.56000E-06    5.56000E-06    5.56000E-06    5.56000E-06    5.56000E-06
    5.56000E-06    5.56000E-06    5.56000E-06    5.56000E-06    5.56000E-06
    5.56000E-06    5.56000E-06    5.56000E-06    5.56000E-06    5.56000E-06
    5.56000E-06    5.56000E-06    5.56000E-06    5.56000E-06    5.56000E-06
    5.56000E-06    5.56000E-06    5.56000E-06    5.56000E-06    5.56000E-06
    5.56000E-06    5.56000E-06    5.56000E-06    5.56000E-06    5.56000E-06
    5.56000E-06    5.56000E-06    5.56000E-06    5.56000E-06    5.56000E-06
    5.56000E-06    5.56000E-06    5.56000E-06    5.56000E-06    5.56000E-06
    5.56000E-06    5.56000E-06    5.56000E-06    5.56000E-06    5.56000E-06
    5.56000E-06    5.56000E-06    5.56000E-06    5.56000E-06    5.56000E-06
    5.56000E-06    5.56000E-06    5.56000E-06    5.56000E-06    5.56000E-06
    5.56000E-06    5.56000E-06    5.56000E-06    5.56000E-06    5.56000E-06
    5.56000E-06    5.56000E-06    5.56000E-06    5.56000E-06    5.56000E-06
    5.56000E-06    5.56000E-06    5.56000E-06    5.56000E-06    5.56000E-06
    5.56000E-06    5.56000E-06    5.56000E-06    5.56000E-06    5.56000E-06
    5.56000E-06    5.56000E-06    5.56000E-06    5.56000E-06    5.56000E-06
    5.56000E-06    5.56000E-06    5.56000E-06    5.56000E-06    5.56000E-06
    5.56000E-06    5.56000E-06    5.56000E-06    5.56000E-06    5.56000E-06
    5.56000E-06    5.56000E-06    5.56000E-06    5.56000E-06    5.56000E-06
    5.56000E-06    5.56000E-06    5.56000E-06    5.56000E-06    5.56000E-06
    5.56000E-06    5.56000E-06    5.56000E-06    5.56000E-06    5.56000E-06
    5.56000E-06    5.56000E-06    5.56000E-06    5.56000E-06    5.56000E-06
    5.56000E-06    5.56000E-06    5.56000E-06    5.56000E-06    5.56000E-06
    5.56000E-06    5.56000E-06    5.56000E-06    5.56000E-06    5.56000E-06
    5.56000E-06    5.56000E-06    5.56000E-06    5.56000E-06    5.56000E-06
    5.56000E-06    5.56000E-06    5.56000E-06    5.56000E-06    5.56000E-06
    5.56000E-06    5.56000E-06    5.56000E-06    5.56000E-06    5.56000E-06
    5.56000E-06    5.56000E-06    5.56000E-06    5.56000E-06    5.56000E-06
    5.56000E-06    5.56000E-06    5.56000E-06    5.56000E-06    5.56000E-06
    5.56000E-06    5.56000E-06    5.56000E-06    5.56000E-06    5.56000E-06
    5.56000E-06    5.56000E-06    5.56000E-06    5.56000E-06    5.56000E-06
    5.56000E-06    5.56000E-06    5.56000E-06    5.56000E-06    5.56000E-06
    5.56000E-06    5.56000E-06    5.56000E-06    5.56000E-06    5.56000E-06
    5.56000E-06    5.56000E-06    5.56000E-06    5.56000E-06    5.56000E-06
    5.56000E-06    5.56000E-06    5.56000E-06    5.56000E-06    5.56000E-06
    5.56000E-06    5.56000E-06    5.56000E-06    5.56000E-06    5.56000E-06
    5.56000E-06    5.56000E-06    5.56000E-06    5.56000E-06    5.56000E-06
    5.56000E-06    5.56000E-06    5.56000E-06    5.56000E-06    5.56000E-06
    5.56000E-06    5.56000E-06    5.56000E-06    5.56000E-06    5.56000E-06
    5.56000E-06    5.56000E-06    5.56000E-06    5.56000E-06    5.56000E-06
    5.56000E-06    5.56000E-06    5.56000E-06    5.56000E-06    5.56000E-06
    5.56000E-06    5.56000E-06    5.56000E-06    5.56000E-06    5.56000E-06
    5.56000E-06    5.56000E-06    5.56000E-06    5.56000E-06    5.56000E-06
    5.56000E-06    5.56000E-06    5.56000E-06    5.56000E-06    5.56000E-06
    5.56000E-06    5.56000E-06    5.56000E-06    5.56000E-06    5.56000E-06
    5.56000E-06    5.56000E-06    5.56000E-06    5.56000E-06    5.56000E-06
    5.56000E-06    5.56000E-06    5.56000E-06    5.56000E-06    5.56000E-06
    5.56000E-06    5.56000E-06    5.56000E-06    5.56000E-06    5.56000E-06
    5.56000E-06    5.56000E-06    5.56000E-06    5.56000E-06    5.56000E-06
    5.56000E-06    5.56000E-06    5.56000E-06    5.56000E-06    5.56000E-06
    5.56000E-06    5.56000E-06    5.56000E-06    5.56000E-06    5.56000E-06
    5.56000E-06    5.56000E-06    5.56000E-06    5.56000E-06    5.56000E-06
    5.56000E-06    5.56000E-06    5.56000E-06    5.56000E-06    5.56000E-06
    5.56000E-06    5.56000E-06    5.56000E-06    5.56000E-06    5.56000E-06
    5.56000E-06    5.56000E-06    5.56000E-06    5.56000E-06    5.56000E-06
           1
INTERNAL  1  (FREE)  -1  Recharge()
     0.0000         0.0000         0.0000         0.0000         0.0000    
     0.0000         0.0000         0.0000         0.0000         0.0000    
     0.0000         0.0000         0.0000         0.0000         0.0000    
     0.0000         0.0000         0.0000         0.0000         0.0000    
     0.0000         0.0000         0.0000         0.0000         0.0000    
     0.0000         0.0000         0.0000         0.0000         0.0000    
     0.0000         0.0000         0.0000         0.0000         0.0000    
     0.0000         0.0000         0.0000         0.0000         0.0000    
     0.0000         0.0000         0.0000         0.0000         0.0000    
     0.0000         0.0000         0.0000         0.0000         0.0000    
     0.0000         0.0000         0.0000         0.0000         0.0000    
     0.0000         0.0000         0.0000         0.0000         0.0000    
     0.0000         0.0000         0.0000         0.0000         0.0000    
     0.0000         0.0000         0.0000         0.0000         0.0000    
     0.0000         0.0000         0.0000         0.0000         0.0000    
     0.0000         0.0000         0.0000         0.0000         0.0000    
     0.0000         0.0000         0.0000         0.0000         0.0000    
     0.0000         0.0000         0.0000         0.0000         0.0000    
     0.0000         0.0000         0.0000         0.0000         0.0000    
     0.0000         0.0000         0.0000         0.0000         0.0000    
     0.0000         0.0000         0.0000         0.0000         0.0000    
     0.0000         0.0000         0.0000         0.0000         0.0000    
     0.0000         0.0000         0.0000         0.0000         0.0000    
     0.0000         0.0000         0.0000         0.0000         0.0000    
     0.0000         0.0000         0.0000         0.0000         0.0000    
     0.0000         0.0000         0.0000         0.0000         0.0000    
     0.0000         0.0000         0.0000         0.0000         0.0000    
     0.0000         0.0000         0.0000         0.0000         0.0000    
     0.0000         0.0000         0.0000         0.0000         0.0000    
     0.0000         0.0000         0.0000         0.0000         0.0000    
     0.0000         0.0000         0.0000         0.0000         0.0000    
     0.0000         0.0000         0.0000         0.0000         0.0000    
     0.0000         0.0000         0.0000         0.0000         0.0000    
     0.0000         0.0000         0.0000         0.0000         0.0000    
     0.0000         0.0000         0.0000         0.0000         0.0000    
     0.0000         0.0000         0.0000         0.0000         0.0000    
     0.0000         0.0000         0.0000         0.0000         0.0000    
     0.0000         0.0000         0.0000         0.0000         0.0000    
     0.0000         0.0000         0.0000         0.0000         0.0000    
     0.0000         0.0000         0.0000         0.0000         0.0000    
     0.0000         0.0000         0.0000         0.0000         0.0000    
     0.0000         0.0000         0.0000         0.0000         0.0000    
     0.0000         0.0000         0.0000         0.0000         0.0000    
     0.0000         0.0000         0.0000         0.0000         0.0000    
     0.0000         0.0000         0.0000         0.0000         0.0000    
     0.0000         0.0000         0.0000         0.0000         0.0000    
     0.0000         0.0000         0.0000         0.0000         0.0000    
     0.0000         0.0000         0.0000         0.0000         0.0000    
     0.0000         0.0000         0.0000         0.0000         0.0000    
     0.0000         0.0000         0.0000         0.0000         0.0000    
     0.0000         0.0000         0.0000         0.0000         0.0000    
     0.0000         0.0000         0.0000         0.0000         0.0000    
     0.0000         0.0000         0.0000         0.0000         0.0000    
     0.0000         0.0000         0.0000         0.0000         0.0000    
     0.0000         0.0000         0.0000         0.0000         0.0000    
     0.0000         0.0000         0.0000         0.0000         0.0000    
     0.0000         0.0000         0.0000         0.0000         0.0000    
     0.0000         0.0000         0.0000         0.0000         0.0000    
     0.0000         0.0000         0.0000         0.0000         0.0000    
     0.0000         0.0000         0.0000         0.0000         0.0000    
     0.0000         0.0000         0.0000         0.0000         0.0000    
     0.0000         0.0000         0.0000         0.0000         0.0000    
     0.0000         0.0000         0.0000         0.0000         0.0000    
     0.0000         0.0000         0.0000         0.0000         0.0000    
     0.0000         0.0000         0.0000         0.0000         0.0000    
     0.0000         0.0000         0.0000         0.0000         0.0000    
     0.0000         0.0000         0.0000         0.0000         0.0000    
     0.0000         0.0000         0.0000         0.0000         0.0000    
     0.0000         0.0000         0.0000         0.0000         0.0000    
     0.0000         0.0000         0.0000         0.0000         0.0000    