# MODFLOW-USG OC file written by Modflow-User-Tools version       1.17
