# MODFLOW-USGs Basic Package
# MODFLOW-USG BAS6 file written by Modflow-User-Tools version       1.17
