# MODFLOW-USG SWBC file written by Modflow-User-Tools version       1.17
           1         118
           1
          27167    0.71862    
        -1
