# MODFLOW-USG Layer Property Flow (LPF) Package written by Modflow-User-Tools version       1.17
