# MODFLOW-USG Grid Specification File (SWF_GSF) Package written by Modflow-User-Tools version       1.17
