# MODFLOW-USG NAM file written by Modflow-User-Tools version       1.17
LIST  104 Modflow.lst
BAS6  105 Modflow.bas
SMS   106 Modflow.sms
OC    107 Modflow.oc
LPF   108 Modflow.lpf
DISU  111 Modflow.dis
DATA(BINARY)  112 Modflow.GWF.cbb
DATA(BINARY)  113 Modflow.GWF.HDS
DATA(BINARY)  114 Modflow.GWF.DDN
