# MODFLOW-USG SWF file written by Modflow-User-Tools version       1.17
#1. NSWFNDS  NJA_SWF  NSWFGWC   NSWFTYP  ISWFCB  ISWFHD   ISWFDD    ISWFIB
     1610     7864     1610        1      118      119      120        0
INTERNAL  1  (FREE)  -1  IA()
   3   4   4   4   4   4   4   4   4   4
   4   4   4   4   4   4   4   4   4   4
   4   4   3   4   5   5   5   5   5   5
   5   5   5   5   5   5   5   5   5   5
   5   5   5   5   5   4   4   5   5   5
   5   5   5   5   5   5   5   5   5   5
   5   5   5   5   5   5   5   5   4   4
   5   5   5   5   5   5   5   5   5   5
   5   5   5   5   5   5   5   5   5   5
   5   4   4   5   5   5   5   5   5   5
   5   5   5   5   5   5   5   5   5   5
   5   5   5   5   4   4   5   5   5   5
   5   5   5   5   5   5   5   5   5   5
   5   5   5   5   5   5   5   4   4   5
   5   5   5   5   5   5   5   5   5   5
   5   5   5   5   5   5   5   5   5   5
   4   4   5   5   5   5   5   5   5   5
   5   5   5   5   5   5   5   5   5   5
   5   5   5   4   4   5   5   5   5   5
   5   5   5   5   5   5   5   5   5   5
   5   5   5   5   5   5   4   4   5   5
   5   5   5   5   5   5   5   5   5   5
   5   5   5   5   5   5   5   5   5   4
   4   5   5   5   5   5   5   5   5   5
   5   5   5   5   5   5   5   5   5   5
   5   5   4   4   5   5   5   5   5   5
   5   5   5   5   5   5   5   5   5   5
   5   5   5   5   5   4   4   5   5   5
   5   5   5   5   5   5   5   5   5   5
   5   5   5   5   5   5   5   5   4   4
   5   5   5   5   5   5   5   5   5   5
   5   5   5   5   5   5   5   5   5   5
   5   4   4   5   5   5   5   5   5   5
   5   5   5   5   5   5   5   5   5   5
   5   5   5   5   4   4   5   5   5   5
   5   5   5   5   5   5   5   5   5   5
   5   5   5   5   5   5   5   4   4   5
   5   5   5   5   5   5   5   5   5   5
   5   5   5   5   5   5   5   5   5   5
   4   4   5   5   5   5   5   5   5   5
   5   5   5   5   5   5   5   5   5   5
   5   5   5   4   4   5   5   5   5   5
   5   5   5   5   5   5   5   5   5   5
   5   5   5   5   5   5   4   4   5   5
   5   5   5   5   5   5   5   5   5   5
   5   5   5   5   5   5   5   5   5   4
   4   5   5   5   5   5   5   5   5   5
   5   5   5   5   5   5   5   5   5   5
   5   5   4   4   5   5   5   5   5   5
   5   5   5   5   5   5   5   5   5   5
   5   5   5   5   5   4   4   5   5   5
   5   5   5   5   5   5   5   5   5   5
   5   5   5   5   5   5   5   5   4   4
   5   5   5   5   5   5   5   5   5   5
   5   5   5   5   5   5   5   5   5   5
   5   4   4   5   5   5   5   5   5   5
   5   5   5   5   5   5   5   5   5   5
   5   5   5   5   4   4   5   5   5   5
   5   5   5   5   5   5   5   5   5   5
   5   5   5   5   5   5   5   4   4   5
   5   5   5   5   5   5   5   5   5   5
   5   5   5   5   5   5   5   5   5   5
   4   4   5   5   5   5   5   5   5   5
   5   5   5   5   5   5   5   5   5   5
   5   5   5   4   4   5   5   5   5   5
   5   5   5   5   5   5   5   5   5   5
   5   5   5   5   5   5   4   4   5   5
   5   5   5   5   5   5   5   5   5   5
   5   5   5   5   5   5   5   5   5   4
   4   5   5   5   5   5   5   5   5   5
   5   5   5   5   5   5   5   5   5   5
   5   5   4   4   5   5   5   5   5   5
   5   5   5   5   5   5   5   5   5   5
   5   5   5   5   5   4   4   5   5   5
   5   5   5   5   5   5   5   5   5   5
   5   5   5   5   5   5   5   5   4   4
   5   5   5   5   5   5   5   5   5   5
   5   5   5   5   5   5   5   5   5   5
   5   4   4   5   5   5   5   5   5   5
   5   5   5   5   5   5   5   5   5   5
   5   5   5   5   4   4   5   5   5   5
   5   5   5   5   5   5   5   5   5   5
   5   5   5   5   5   5   5   4   4   5
   5   5   5   5   5   5   5   5   5   5
   5   5   5   5   5   5   5   5   5   5
   4   4   5   5   5   5   5   5   5   5
   5   5   5   5   5   5   5   5   5   5
   5   5   5   4   4   5   5   5   5   5
   5   5   5   5   5   5   5   5   5   5
   5   5   5   5   5   5   4   4   5   5
   5   5   5   5   5   5   5   5   5   5
   5   5   5   5   5   5   5   5   5   4
   4   5   5   5   5   5   5   5   5   5
   5   5   5   5   5   5   5   5   5   5
   5   5   4   4   5   5   5   5   5   5
   5   5   5   5   5   5   5   5   5   5
   5   5   5   5   5   4   4   5   5   5
   5   5   5   5   5   5   5   5   5   5
   5   5   5   5   5   5   5   5   4   4
   5   5   5   5   5   5   5   5   5   5
   5   5   5   5   5   5   5   5   5   5
   5   4   4   5   5   5   5   5   5   5
   5   5   5   5   5   5   5   5   5   5
   5   5   5   5   4   4   5   5   5   5
   5   5   5   5   5   5   5   5   5   5
   5   5   5   5   5   5   5   4   4   5
   5   5   5   5   5   5   5   5   5   5
   5   5   5   5   5   5   5   5   5   5
   4   4   5   5   5   5   5   5   5   5
   5   5   5   5   5   5   5   5   5   5
   5   5   5   4   4   5   5   5   5   5
   5   5   5   5   5   5   5   5   5   5
   5   5   5   5   5   5   4   4   5   5
   5   5   5   5   5   5   5   5   5   5
   5   5   5   5   5   5   5   5   5   4
   4   5   5   5   5   5   5   5   5   5
   5   5   5   5   5   5   5   5   5   5
   5   5   4   4   5   5   5   5   5   5
   5   5   5   5   5   5   5   5   5   5
   5   5   5   5   5   4   4   5   5   5
   5   5   5   5   5   5   5   5   5   5
   5   5   5   5   5   5   5   5   4   4
   5   5   5   5   5   5   5   5   5   5
   5   5   5   5   5   5   5   5   5   5
   5   4   4   5   5   5   5   5   5   5
   5   5   5   5   5   5   5   5   5   5
   5   5   5   5   4   4   5   5   5   5
   5   5   5   5   5   5   5   5   5   5
   5   5   5   5   5   5   5   4   4   5
   5   5   5   5   5   5   5   5   5   5
   5   5   5   5   5   5   5   5   5   5
   4   4   5   5   5   5   5   5   5   5
   5   5   5   5   5   5   5   5   5   5
   5   5   5   4   4   5   5   5   5   5
   5   5   5   5   5   5   5   5   5   5
   5   5   5   5   5   5   4   4   5   5
   5   5   5   5   5   5   5   5   5   5
   5   5   5   5   5   5   5   5   5   4
   4   5   5   5   5   5   5   5   5   5
   5   5   5   5   5   5   5   5   5   5
   5   5   4   4   5   5   5   5   5   5
   5   5   5   5   5   5   5   5   5   5
   5   5   5   5   5   4   4   5   5   5
   5   5   5   5   5   5   5   5   5   5
   5   5   5   5   5   5   5   5   4   4
   5   5   5   5   5   5   5   5   5   5
   5   5   5   5   5   5   5   5   5   5
   5   4   4   5   5   5   5   5   5   5
   5   5   5   5   5   5   5   5   5   5
   5   5   5   5   4   4   5   5   5   5
   5   5   5   5   5   5   5   5   5   5
   5   5   5   5   5   5   5   4   4   5
   5   5   5   5   5   5   5   5   5   5
   5   5   5   5   5   5   5   5   5   5
   4   4   5   5   5   5   5   5   5   5
   5   5   5   5   5   5   5   5   5   5
   5   5   5   4   4   5   5   5   5   5
   5   5   5   5   5   5   5   5   5   5
   5   5   5   5   5   5   4   3   4   4
   4   4   4   4   4   4   4   4   4   4
   4   4   4   4   4   4   4   4   4   3
INTERNAL  1  (FREE)  -1  JA()
           1           2          24
           2           3          25           1
           3           4          26           2
           4           5          27           3
           5           6          28           4
           6           7          29           5
           7           8          30           6
           8           9          31           7
           9          10          32           8
          10          11          33           9
          11          12          34          10
          12          13          35          11
          13          14          36          12
          14          15          37          13
          15          16          38          14
          16          17          39          15
          17          18          40          16
          18          19          41          17
          19          20          42          18
          20          21          43          19
          21          22          44          20
          22          23          45          21
          23          46          22
          24           1          25          47
          25           2          26          48          24
          26           3          27          49          25
          27           4          28          50          26
          28           5          29          51          27
          29           6          30          52          28
          30           7          31          53          29
          31           8          32          54          30
          32           9          33          55          31
          33          10          34          56          32
          34          11          35          57          33
          35          12          36          58          34
          36          13          37          59          35
          37          14          38          60          36
          38          15          39          61          37
          39          16          40          62          38
          40          17          41          63          39
          41          18          42          64          40
          42          19          43          65          41
          43          20          44          66          42
          44          21          45          67          43
          45          22          46          68          44
          46          23          69          45
          47          24          48          70
          48          25          49          71          47
          49          26          50          72          48
          50          27          51          73          49
          51          28          52          74          50
          52          29          53          75          51
          53          30          54          76          52
          54          31          55          77          53
          55          32          56          78          54
          56          33          57          79          55
          57          34          58          80          56
          58          35          59          81          57
          59          36          60          82          58
          60          37          61          83          59
          61          38          62          84          60
          62          39          63          85          61
          63          40          64          86          62
          64          41          65          87          63
          65          42          66          88          64
          66          43          67          89          65
          67          44          68          90          66
          68          45          69          91          67
          69          46          92          68
          70          47          71          93
          71          48          72          94          70
          72          49          73          95          71
          73          50          74          96          72
          74          51          75          97          73
          75          52          76          98          74
          76          53          77          99          75
          77          54          78         100          76
          78          55          79         101          77
          79          56          80         102          78
          80          57          81         103          79
          81          58          82         104          80
          82          59          83         105          81
          83          60          84         106          82
          84          61          85         107          83
          85          62          86         108          84
          86          63          87         109          85
          87          64          88         110          86
          88          65          89         111          87
          89          66          90         112          88
          90          67          91         113          89
          91          68          92         114          90
          92          69         115          91
          93          70          94         116
          94          71          95         117          93
          95          72          96         118          94
          96          73          97         119          95
          97          74          98         120          96
          98          75          99         121          97
          99          76         100         122          98
         100          77         101         123          99
         101          78         102         124         100
         102          79         103         125         101
         103          80         104         126         102
         104          81         105         127         103
         105          82         106         128         104
         106          83         107         129         105
         107          84         108         130         106
         108          85         109         131         107
         109          86         110         132         108
         110          87         111         133         109
         111          88         112         134         110
         112          89         113         135         111
         113          90         114         136         112
         114          91         115         137         113
         115          92         138         114
         116          93         117         139
         117          94         118         140         116
         118          95         119         141         117
         119          96         120         142         118
         120          97         121         143         119
         121          98         122         144         120
         122          99         123         145         121
         123         100         124         146         122
         124         101         125         147         123
         125         102         126         148         124
         126         103         127         149         125
         127         104         128         150         126
         128         105         129         151         127
         129         106         130         152         128
         130         107         131         153         129
         131         108         132         154         130
         132         109         133         155         131
         133         110         134         156         132
         134         111         135         157         133
         135         112         136         158         134
         136         113         137         159         135
         137         114         138         160         136
         138         115         161         137
         139         116         140         162
         140         117         141         163         139
         141         118         142         164         140
         142         119         143         165         141
         143         120         144         166         142
         144         121         145         167         143
         145         122         146         168         144
         146         123         147         169         145
         147         124         148         170         146
         148         125         149         171         147
         149         126         150         172         148
         150         127         151         173         149
         151         128         152         174         150
         152         129         153         175         151
         153         130         154         176         152
         154         131         155         177         153
         155         132         156         178         154
         156         133         157         179         155
         157         134         158         180         156
         158         135         159         181         157
         159         136         160         182         158
         160         137         161         183         159
         161         138         184         160
         162         139         163         185
         163         140         164         186         162
         164         141         165         187         163
         165         142         166         188         164
         166         143         167         189         165
         167         144         168         190         166
         168         145         169         191         167
         169         146         170         192         168
         170         147         171         193         169
         171         148         172         194         170
         172         149         173         195         171
         173         150         174         196         172
         174         151         175         197         173
         175         152         176         198         174
         176         153         177         199         175
         177         154         178         200         176
         178         155         179         201         177
         179         156         180         202         178
         180         157         181         203         179
         181         158         182         204         180
         182         159         183         205         181
         183         160         184         206         182
         184         161         207         183
         185         162         186         208
         186         163         187         209         185
         187         164         188         210         186
         188         165         189         211         187
         189         166         190         212         188
         190         167         191         213         189
         191         168         192         214         190
         192         169         193         215         191
         193         170         194         216         192
         194         171         195         217         193
         195         172         196         218         194
         196         173         197         219         195
         197         174         198         220         196
         198         175         199         221         197
         199         176         200         222         198
         200         177         201         223         199
         201         178         202         224         200
         202         179         203         225         201
         203         180         204         226         202
         204         181         205         227         203
         205         182         206         228         204
         206         183         207         229         205
         207         184         230         206
         208         185         209         231
         209         186         210         232         208
         210         187         211         233         209
         211         188         212         234         210
         212         189         213         235         211
         213         190         214         236         212
         214         191         215         237         213
         215         192         216         238         214
         216         193         217         239         215
         217         194         218         240         216
         218         195         219         241         217
         219         196         220         242         218
         220         197         221         243         219
         221         198         222         244         220
         222         199         223         245         221
         223         200         224         246         222
         224         201         225         247         223
         225         202         226         248         224
         226         203         227         249         225
         227         204         228         250         226
         228         205         229         251         227
         229         206         230         252         228
         230         207         253         229
         231         208         232         254
         232         209         233         255         231
         233         210         234         256         232
         234         211         235         257         233
         235         212         236         258         234
         236         213         237         259         235
         237         214         238         260         236
         238         215         239         261         237
         239         216         240         262         238
         240         217         241         263         239
         241         218         242         264         240
         242         219         243         265         241
         243         220         244         266         242
         244         221         245         267         243
         245         222         246         268         244
         246         223         247         269         245
         247         224         248         270         246
         248         225         249         271         247
         249         226         250         272         248
         250         227         251         273         249
         251         228         252         274         250
         252         229         253         275         251
         253         230         276         252
         254         231         255         277
         255         232         256         278         254
         256         233         257         279         255
         257         234         258         280         256
         258         235         259         281         257
         259         236         260         282         258
         260         237         261         283         259
         261         238         262         284         260
         262         239         263         285         261
         263         240         264         286         262
         264         241         265         287         263
         265         242         266         288         264
         266         243         267         289         265
         267         244         268         290         266
         268         245         269         291         267
         269         246         270         292         268
         270         247         271         293         269
         271         248         272         294         270
         272         249         273         295         271
         273         250         274         296         272
         274         251         275         297         273
         275         252         276         298         274
         276         253         299         275
         277         254         278         300
         278         255         279         301         277
         279         256         280         302         278
         280         257         281         303         279
         281         258         282         304         280
         282         259         283         305         281
         283         260         284         306         282
         284         261         285         307         283
         285         262         286         308         284
         286         263         287         309         285
         287         264         288         310         286
         288         265         289         311         287
         289         266         290         312         288
         290         267         291         313         289
         291         268         292         314         290
         292         269         293         315         291
         293         270         294         316         292
         294         271         295         317         293
         295         272         296         318         294
         296         273         297         319         295
         297         274         298         320         296
         298         275         299         321         297
         299         276         322         298
         300         277         301         323
         301         278         302         324         300
         302         279         303         325         301
         303         280         304         326         302
         304         281         305         327         303
         305         282         306         328         304
         306         283         307         329         305
         307         284         308         330         306
         308         285         309         331         307
         309         286         310         332         308
         310         287         311         333         309
         311         288         312         334         310
         312         289         313         335         311
         313         290         314         336         312
         314         291         315         337         313
         315         292         316         338         314
         316         293         317         339         315
         317         294         318         340         316
         318         295         319         341         317
         319         296         320         342         318
         320         297         321         343         319
         321         298         322         344         320
         322         299         345         321
         323         300         324         346
         324         301         325         347         323
         325         302         326         348         324
         326         303         327         349         325
         327         304         328         350         326
         328         305         329         351         327
         329         306         330         352         328
         330         307         331         353         329
         331         308         332         354         330
         332         309         333         355         331
         333         310         334         356         332
         334         311         335         357         333
         335         312         336         358         334
         336         313         337         359         335
         337         314         338         360         336
         338         315         339         361         337
         339         316         340         362         338
         340         317         341         363         339
         341         318         342         364         340
         342         319         343         365         341
         343         320         344         366         342
         344         321         345         367         343
         345         322         368         344
         346         323         347         369
         347         324         348         370         346
         348         325         349         371         347
         349         326         350         372         348
         350         327         351         373         349
         351         328         352         374         350
         352         329         353         375         351
         353         330         354         376         352
         354         331         355         377         353
         355         332         356         378         354
         356         333         357         379         355
         357         334         358         380         356
         358         335         359         381         357
         359         336         360         382         358
         360         337         361         383         359
         361         338         362         384         360
         362         339         363         385         361
         363         340         364         386         362
         364         341         365         387         363
         365         342         366         388         364
         366         343         367         389         365
         367         344         368         390         366
         368         345         391         367
         369         346         370         392
         370         347         371         393         369
         371         348         372         394         370
         372         349         373         395         371
         373         350         374         396         372
         374         351         375         397         373
         375         352         376         398         374
         376         353         377         399         375
         377         354         378         400         376
         378         355         379         401         377
         379         356         380         402         378
         380         357         381         403         379
         381         358         382         404         380
         382         359         383         405         381
         383         360         384         406         382
         384         361         385         407         383
         385         362         386         408         384
         386         363         387         409         385
         387         364         388         410         386
         388         365         389         411         387
         389         366         390         412         388
         390         367         391         413         389