# MODFLOW-USG Grid Specification File (GSF) written by Modflow-User-Tools version       1.17
